Version 4
SHEET 1 2644 836
WIRE 416 -592 416 -688
WIRE 384 -480 256 -480
WIRE 496 -448 464 -448
WIRE 832 -448 656 -448
WIRE 384 -416 80 -416
WIRE 1280 -272 1168 -272
WIRE 1616 -272 1360 -272
WIRE 416 -256 416 -304
WIRE -112 -192 -160 -192
WIRE 80 -192 80 -416
WIRE 80 -192 -112 -192
WIRE 256 -160 256 -480
WIRE 448 -160 256 -160
WIRE 656 -160 528 -160
WIRE 832 -160 832 -448
WIRE 832 -160 656 -160
WIRE 1920 -160 1872 -160
WIRE 1968 -160 1920 -160
WIRE -160 -144 -160 -192
WIRE 256 -144 256 -160
WIRE 256 -144 144 -144
WIRE 144 -112 144 -144
WIRE 256 -112 256 -144
WIRE 704 -112 704 -224
WIRE 832 -112 832 -160
WIRE 928 -112 832 -112
WIRE 1024 -112 928 -112
WIRE 1168 -112 1168 -272
WIRE 1168 -112 1104 -112
WIRE 1280 -112 1168 -112
WIRE 1552 -112 1440 -112
WIRE 1616 -112 1616 -272
WIRE 1616 -112 1552 -112
WIRE 1632 -112 1616 -112
WIRE 1872 -112 1872 -160
WIRE 656 -96 656 -160
WIRE 1824 -96 1728 -96
WIRE 1280 -80 1200 -80
WIRE 928 -48 832 -48
WIRE 1024 -48 928 -48
WIRE 1152 -48 1104 -48
WIRE 1280 -48 1152 -48
WIRE 1600 -48 1440 -48
WIRE 1616 -48 1600 -48
WIRE 1648 -48 1728 -96
WIRE 1648 -48 1616 -48
WIRE 1728 -48 1632 -112
WIRE 1824 -48 1728 -48
WIRE 704 -16 704 -32
WIRE 1200 0 1200 -80
WIRE 1872 0 1872 -32
WIRE 256 16 256 -32
WIRE 448 16 256 16
WIRE 656 16 656 -48
WIRE 656 16 528 16
WIRE 832 16 832 -48
WIRE 832 16 656 16
WIRE 1312 48 1312 0
WIRE -160 64 -160 -64
WIRE 80 64 -160 64
WIRE 1200 80 1200 64
WIRE -160 144 -160 64
WIRE 1152 176 1152 -48
WIRE 1296 176 1152 176
WIRE 1616 176 1616 -48
WIRE 1616 176 1376 176
WIRE 432 208 432 112
WIRE -496 272 -496 208
WIRE -368 272 -368 208
WIRE -640 288 -640 224
WIRE -160 288 -160 224
WIRE 256 320 256 16
WIRE 400 320 256 320
WIRE 512 352 480 352
WIRE 832 352 832 16
WIRE 832 352 672 352
WIRE 80 384 80 64
WIRE 400 384 80 384
WIRE -496 400 -496 352
WIRE -368 400 -368 352
WIRE -640 432 -640 368
WIRE 432 544 432 496
FLAG -496 400 0
FLAG -368 400 0
FLAG -496 208 v+
FLAG -368 208 v-
FLAG -160 288 0
FLAG -112 -192 Vin
FLAG 432 112 v+
FLAG 432 544 v-
FLAG 416 -688 v+
FLAG 416 -256 v-
FLAG 1200 80 0
FLAG 928 -112 diff+
FLAG 928 -48 diff-
FLAG 1600 -48 out+
FLAG 1552 -112 out-
FLAG -640 432 0
FLAG 1312 48 0
FLAG -640 224 vcc
FLAG 1312 -160 vcc
FLAG 1872 0 0
FLAG 1920 -160 Vout
FLAG 1344 0 vcc
FLAG 704 -16 0
FLAG 704 -224 diffout
SYMBOL voltage -496 256 R0
WINDOW 123 0 0 Left 2
WINDOW 39 0 0 Left 2
SYMATTR InstName V1
SYMATTR Value 5
SYMBOL voltage -368 256 R0
WINDOW 123 0 0 Left 2
WINDOW 39 0 0 Left 2
SYMATTR InstName V2
SYMATTR Value -5
SYMBOL voltage -160 -160 R0
WINDOW 123 24 124 Left 2
WINDOW 39 0 0 Left 2
WINDOW 3 24 152 Left 2
SYMATTR Value2 AC 1
SYMATTR Value SINE(0 .01 1000)
SYMATTR InstName Vin_source
SYMBOL Opamps\\LTC2057 560 352 R0
SYMATTR InstName U2
SYMBOL Opamps\\LTC6362 1344 -80 R0
SYMATTR InstName U1
SYMBOL Opamps\\LTC2057 544 -448 R0
SYMATTR InstName U3
SYMBOL res 544 -176 R90
WINDOW 0 0 56 VBottom 2
WINDOW 3 32 56 VTop 2
SYMATTR InstName R1
SYMATTR Value 10k
SYMBOL res 544 0 R90
WINDOW 0 0 56 VBottom 2
WINDOW 3 32 56 VTop 2
SYMATTR InstName R2
SYMATTR Value 10k
SYMBOL res 272 -16 R180
WINDOW 0 36 76 Left 2
WINDOW 3 36 40 Left 2
SYMATTR InstName R3
SYMATTR Value 1k
SYMBOL voltage -160 128 R0
WINDOW 123 0 0 Left 2
WINDOW 39 0 0 Left 2
SYMATTR InstName V3
SYMATTR Value 1
SYMBOL cap 1184 0 R0
SYMATTR InstName C1
SYMATTR Value 0.1µ
SYMBOL res 1120 -128 R90
WINDOW 0 4 104 VBottom 2
WINDOW 3 -22 8 VTop 2
SYMATTR InstName R4
SYMATTR Value 1k
SYMBOL res 1120 -64 R90
WINDOW 0 7 108 VBottom 2
WINDOW 3 -17 7 VTop 2
SYMATTR InstName R5
SYMATTR Value 1k
SYMBOL res 1376 -288 R90
WINDOW 0 0 56 VBottom 2
WINDOW 3 32 56 VTop 2
SYMATTR InstName R6
SYMATTR Value 1k
SYMBOL res 1392 160 R90
WINDOW 0 0 56 VBottom 2
WINDOW 3 32 56 VTop 2
SYMATTR InstName R7
SYMATTR Value 1k
SYMBOL voltage -640 272 R0
WINDOW 123 0 0 Left 2
WINDOW 39 0 0 Left 2
SYMATTR InstName V4
SYMATTR Value 5
SYMBOL e 1872 -128 R0
SYMATTR InstName E1
SYMATTR Value 1
SYMBOL e 704 -128 R0
SYMATTR InstName E2
SYMATTR Value 1
SYMBOL res 128 -128 R0
SYMATTR InstName R8
TEXT -224 592 Left 2 !.noise V(vout) Vin_source lin 16383 62.5 125000
TEXT -224 648 Left 2 !;tran .01
TEXT -224 -664 Left 2 ;LTC2057 Properties:\nNoise: 13nV/rootHz\nOffset: 0.5uV typ, 5uV max
TEXT 808 -576 Left 2 ;Diffamp Output Properties:\nNoise = 13nV/rootHz x 1.414 * 21 = 386nV/rootHz\nOffset = 21uV typ, 210uV max
TEXT 1448 -408 Left 2 ;LTC6363 Properties:\nNoise: 2.9nV/rootHz (confirm, and where is 1/f?)\nOffset: 10uV typical, 60uV max
