Version 4
SHEET 1 2644 836
WIRE 1648 -656 1648 -720
WIRE 1776 -656 1776 -720
WIRE 1504 -640 1504 -704
WIRE 416 -544 416 -560
WIRE 1648 -528 1648 -576
WIRE 1776 -528 1776 -576
WIRE 1504 -496 1504 -560
WIRE 384 -432 256 -432
WIRE 496 -400 464 -400
WIRE 832 -400 656 -400
WIRE 384 -368 208 -368
WIRE 1200 -256 1088 -256
WIRE 1440 -256 1280 -256
WIRE 416 -240 416 -256
WIRE 32 -192 -16 -192
WIRE 208 -192 208 -368
WIRE 208 -192 32 -192
WIRE 1840 -176 1792 -176
WIRE 1888 -176 1840 -176
WIRE 256 -160 256 -432
WIRE 448 -160 256 -160
WIRE 656 -160 528 -160
WIRE 832 -160 832 -400
WIRE 832 -160 656 -160
WIRE -16 -144 -16 -192
WIRE 256 -144 256 -160
WIRE 256 -144 144 -144
WIRE 1792 -128 1792 -176
WIRE 144 -112 144 -144
WIRE 256 -112 256 -144
WIRE 704 -112 704 -224
WIRE 832 -112 832 -160
WIRE 880 -112 832 -112
WIRE 944 -112 880 -112
WIRE 1088 -112 1088 -256
WIRE 1088 -112 1024 -112
WIRE 1200 -112 1088 -112
WIRE 1408 -112 1360 -112
WIRE 1440 -112 1440 -256
WIRE 1440 -112 1408 -112
WIRE 1472 -112 1440 -112
WIRE 1600 -112 1552 -112
WIRE 1632 -112 1600 -112
WIRE 1744 -112 1696 -112
WIRE 656 -96 656 -160
WIRE 1200 -80 1120 -80
WIRE 1696 -64 1632 -112
WIRE 1744 -64 1696 -64
WIRE 864 -48 832 -48
WIRE 944 -48 864 -48
WIRE 1072 -48 1024 -48
WIRE 1200 -48 1072 -48
WIRE 1408 -48 1360 -48
WIRE 1440 -48 1408 -48
WIRE 1472 -48 1440 -48
WIRE 1600 -48 1552 -48
WIRE 1648 -48 1696 -112
WIRE 1648 -48 1600 -48
WIRE 704 -16 704 -32
WIRE 1792 -16 1792 -48
WIRE 144 0 144 -32
WIRE 256 0 256 -32
WIRE 256 0 144 0
WIRE 1120 0 1120 -80
WIRE 256 16 256 0
WIRE 448 16 256 16
WIRE 656 16 656 -48
WIRE 656 16 528 16
WIRE 832 16 832 -48
WIRE 832 16 656 16
WIRE 1232 48 1232 0
WIRE -16 64 -16 -64
WIRE 208 64 -16 64
WIRE 1120 80 1120 64
WIRE 432 96 432 80
WIRE -16 144 -16 64
WIRE 1072 144 1072 -48
WIRE 1216 144 1072 144
WIRE 1440 144 1440 -48
WIRE 1440 144 1296 144
WIRE 256 208 256 16
WIRE 400 208 256 208
WIRE 512 240 480 240
WIRE 832 240 832 16
WIRE 832 240 672 240
WIRE 208 272 208 64
WIRE 400 272 208 272
WIRE -16 288 -16 224
WIRE 432 400 432 384
FLAG 1648 -528 0
FLAG 1776 -528 0
FLAG 1648 -720 v+
FLAG 1776 -720 v-
FLAG -16 288 0
FLAG 32 -192 Vin
FLAG 432 80 v+
FLAG 432 400 v-
FLAG 416 -560 v+
FLAG 416 -240 v-
FLAG 1120 80 0
FLAG 880 -112 diff+
FLAG 864 -48 diff-
FLAG 1408 -48 out+
FLAG 1408 -112 out-
FLAG 1504 -496 0
FLAG 1232 48 0
FLAG 1504 -704 vcc
FLAG 1232 -160 vcc
FLAG 1792 -16 0
FLAG 1840 -176 Vout
FLAG 1264 0 vcc
FLAG 704 -16 0
FLAG 704 -224 diffout
SYMBOL voltage 1648 -672 R0
WINDOW 123 0 0 Left 2
WINDOW 39 0 0 Left 2
SYMATTR InstName V1
SYMATTR Value 5
SYMBOL voltage 1776 -672 R0
WINDOW 123 0 0 Left 2
WINDOW 39 0 0 Left 2
SYMATTR InstName V2
SYMATTR Value -5
SYMBOL voltage -16 -160 R0
WINDOW 123 -24 56 Left 2
WINDOW 39 0 0 Left 2
WINDOW 3 -53 -37 VRight 2
WINDOW 0 -85 -15 VRight 2
SYMATTR Value2 AC 1
SYMATTR Value SINE(0 .01 1000)
SYMATTR InstName Vin_source
SYMBOL Opamps\\LTC2057 560 240 R0
SYMATTR InstName U2
SYMBOL Opamps\\LTC2057 544 -400 R0
SYMATTR InstName U3
SYMBOL res 544 -176 R90
WINDOW 0 0 56 VBottom 2
WINDOW 3 32 56 VTop 2
SYMATTR InstName R1
SYMATTR Value 9k
SYMBOL res 544 0 R90
WINDOW 0 0 56 VBottom 2
WINDOW 3 32 56 VTop 2
SYMATTR InstName R2
SYMATTR Value 9k
SYMBOL res 272 -16 R180
WINDOW 0 36 76 Left 2
WINDOW 3 36 40 Left 2
SYMATTR InstName R3
SYMATTR Value 1k
SYMBOL voltage -16 128 R0
WINDOW 123 0 0 Left 2
WINDOW 39 0 0 Left 2
SYMATTR InstName V3
SYMATTR Value 1
SYMBOL cap 1104 0 R0
SYMATTR InstName C1
SYMATTR Value 0.1µ
SYMBOL res 1040 -128 R90
WINDOW 0 4 104 VBottom 2
WINDOW 3 -22 8 VTop 2
SYMATTR InstName R4
SYMATTR Value 1k
SYMBOL res 1040 -64 R90
WINDOW 0 7 108 VBottom 2
WINDOW 3 -17 7 VTop 2
SYMATTR InstName R5
SYMATTR Value 1k
SYMBOL res 1296 -272 R90
WINDOW 0 0 56 VBottom 2
WINDOW 3 32 56 VTop 2
SYMATTR InstName R6
SYMATTR Value 1k
SYMBOL res 1312 128 R90
WINDOW 0 0 56 VBottom 2
WINDOW 3 32 56 VTop 2
SYMATTR InstName R7
SYMATTR Value 1k
SYMBOL voltage 1504 -656 R0
WINDOW 123 0 0 Left 2
WINDOW 39 0 0 Left 2
SYMATTR InstName V4
SYMATTR Value 5
SYMBOL e 1792 -144 R0
SYMATTR InstName E1
SYMATTR Value 1
SYMBOL e 704 -128 R0
SYMATTR InstName E2
SYMATTR Value 1
SYMBOL res 128 -128 R0
SYMATTR InstName R8
SYMATTR Value 1k
SYMBOL cap 1584 -112 R0
SYMATTR InstName C2
SYMATTR Value 2200p
SYMBOL res 1568 -128 R90
WINDOW 0 0 56 VBottom 2
WINDOW 3 32 56 VTop 2
SYMATTR InstName R9
SYMATTR Value 40
SYMBOL res 1568 -64 R90
WINDOW 0 0 56 VBottom 2
WINDOW 3 32 56 VTop 2
SYMATTR InstName R10
SYMATTR Value 40
SYMBOL Opamps\\LTC6363 1264 -80 R0
SYMATTR InstName U4
TEXT -80 -648 Left 2 !.noise V(Vout) Vin_source lin 16383 62.5 5Meg
TEXT -80 -592 Left 2 !;tran .01
TEXT -72 -504 Left 2 ;LTC2057 Properties:\nNoise: 13nV/rootHz\nOffset: 0.5uV typ, 5uV max
TEXT 808 -576 Left 2 ;Diffamp Output Properties:\nNoise = 13nV/rootHz x 1.414 * 21 = 386nV/rootHz\nOffset = 21uV typ, 210uV max
TEXT 1448 -408 Left 2 ;LTC6363 Properties:\nNoise: 2.9nV/rootHz\n1/f corner at 10kHz or so\nOffset: 10uV typical, 60uV max
TEXT 1496 88 Left 2 ;Broadband driver noise filter\nCutoff = 1/(2*pi*80*2200pF) = 904kHz
TEXT 384 -792 Left 4 ;Low-Noise, Wide common-mode range,\nHigh input impedance SAR driver\nGain=19 or 37, depending on LT5400 connection
