Version 4
SHEET 1 3704 704
WIRE 1248 -1360 912 -1360
WIRE 1600 -1360 1248 -1360
WIRE 1600 -1296 1600 -1360
WIRE 912 -1248 912 -1360
WIRE 1600 -1152 1600 -1216
WIRE 912 -1136 912 -1168
WIRE 912 -992 912 -1056
WIRE 912 -864 912 -912
WIRE -224 -816 -672 -816
WIRE 336 -816 -160 -816
WIRE 848 -816 400 -816
WIRE -672 -752 -672 -816
WIRE -160 -752 -160 -816
WIRE 912 -720 912 -784
WIRE 400 -704 400 -816
WIRE -672 -624 -672 -672
WIRE -160 -608 -160 -672
WIRE 912 -608 912 -640
WIRE 400 -592 400 -624
WIRE -672 -512 -672 -544
WIRE -160 -480 -160 -528
WIRE 400 -480 400 -512
WIRE 912 -480 912 -528
WIRE -672 -384 -672 -432
WIRE -160 -368 -160 -400
WIRE 400 -368 400 -400
WIRE 912 -352 912 -400
WIRE -672 -256 -672 -304
WIRE -160 -256 -160 -288
WIRE 912 -240 912 -272
WIRE 400 -208 400 -288
WIRE -672 -144 -672 -176
WIRE -160 -144 -160 -176
WIRE 912 -128 912 -160
WIRE 400 -80 400 -128
WIRE -672 -32 -672 -64
WIRE -160 -32 -160 -64
WIRE 912 -16 912 -48
WIRE 400 32 400 0
WIRE -672 64 -672 48
WIRE -672 64 -864 64
WIRE -672 80 -672 64
WIRE -160 96 -160 48
WIRE 912 112 912 64
WIRE -864 128 -864 64
WIRE 400 144 400 112
WIRE -672 256 -672 160
WIRE -224 256 -224 -816
WIRE -160 256 -160 176
WIRE -160 256 -224 256
WIRE 336 256 336 -816
WIRE 400 256 400 224
WIRE 400 256 336 256
WIRE 848 256 848 -816
WIRE 912 256 912 192
WIRE 912 256 848 256
WIRE -864 272 -864 208
FLAG -672 256 0
FLAG 1600 -1152 0
FLAG -864 272 0
FLAG 1248 -1360 Vout
SYMBOL voltage -672 64 R0
WINDOW 123 0 0 Left 2
WINDOW 39 0 0 Left 2
SYMATTR InstName V1
SYMATTR Value SINE(0 {amplitude} {1 + {foffset}} 0 0 {phase_01})
SYMBOL voltage -672 -48 R0
WINDOW 123 0 0 Left 2
WINDOW 39 0 0 Left 2
SYMATTR InstName V2
SYMATTR Value SINE(0 {amplitude} {2 + {foffset}} 0 0 {phase_02})
SYMBOL voltage -672 -160 R0
WINDOW 123 0 0 Left 2
WINDOW 39 0 0 Left 2
SYMATTR InstName V3
SYMATTR Value SINE(0 {amplitude} {3 + {foffset}} 0 0 {phase_03})
SYMBOL voltage -672 -272 R0
WINDOW 123 0 0 Left 2
WINDOW 39 0 0 Left 2
SYMATTR InstName V4
SYMATTR Value SINE(0 {amplitude} {4 + {foffset}} 0 0 {phase_04})
SYMBOL voltage -672 -400 R0
WINDOW 123 0 0 Left 2
WINDOW 39 0 0 Left 2
SYMATTR InstName V5
SYMATTR Value SINE(0 {amplitude} {5 + {foffset}} 0 0 {phase_05})
SYMBOL res 1584 -1312 R0
SYMATTR InstName R1
SYMATTR Value 1
SYMBOL voltage -672 -528 R0
WINDOW 123 0 0 Left 2
WINDOW 39 0 0 Left 2
SYMATTR InstName V6
SYMATTR Value SINE(0 {amplitude} {6 + {foffset}} 0 0 {phase_06})
SYMBOL voltage -672 -640 R0
WINDOW 123 0 0 Left 2
WINDOW 39 0 0 Left 2
SYMATTR InstName V7
SYMATTR Value SINE(0 {amplitude} {7 + {foffset}} 0 0 {phase_07})
SYMBOL voltage -672 -768 R0
WINDOW 123 0 0 Left 2
WINDOW 39 0 0 Left 2
SYMATTR InstName V8
SYMATTR Value SINE(0 {amplitude} {8 + {foffset}} 0 0 {phase_08})
SYMBOL voltage -160 80 R0
WINDOW 123 0 0 Left 2
WINDOW 39 0 0 Left 2
SYMATTR InstName V9
SYMATTR Value SINE(0 {amplitude} {9 + {foffset}} 0 0 {phase_09})
SYMBOL voltage -160 -48 R0
WINDOW 123 0 0 Left 2
WINDOW 39 0 0 Left 2
SYMATTR InstName V10
SYMATTR Value SINE(0 {amplitude} {10 + {foffset}} 0 0 {phase_10})
SYMBOL voltage -160 -160 R0
WINDOW 123 0 0 Left 2
WINDOW 39 0 0 Left 2
SYMATTR InstName V11
SYMATTR Value SINE(0 {amplitude} {11 + {foffset}} 0 0 {phase_11})
SYMBOL voltage -160 -272 R0
WINDOW 123 0 0 Left 2
WINDOW 39 0 0 Left 2
SYMATTR InstName V12
SYMATTR Value SINE(0 {amplitude} {12 + {foffset}} 0 0 {phase_12})
SYMBOL voltage -160 -384 R0
WINDOW 123 0 0 Left 2
WINDOW 39 0 0 Left 2
SYMATTR InstName V13
SYMATTR Value SINE(0 {amplitude} {13 + {foffset}} 0 0 {phase_13})
SYMBOL voltage -160 -496 R0
WINDOW 123 0 0 Left 2
WINDOW 39 0 0 Left 2
SYMATTR InstName V14
SYMATTR Value SINE(0 {amplitude} {14 + {foffset}} 0 0 {phase_14})
SYMBOL voltage -160 -624 R0
WINDOW 123 0 0 Left 2
WINDOW 39 0 0 Left 2
SYMATTR InstName V15
SYMATTR Value SINE(0 {amplitude} {15 + {foffset}} 0 0 {phase_15})
SYMBOL voltage -160 -768 R0
WINDOW 123 0 0 Left 2
WINDOW 39 0 0 Left 2
SYMATTR InstName V16
SYMATTR Value SINE(0 {amplitude} {16 + {foffset}} 0 0 {phase_16})
SYMBOL voltage 400 128 R0
WINDOW 123 0 0 Left 2
WINDOW 39 0 0 Left 2
SYMATTR InstName V17
SYMATTR Value SINE(0 {amplitude} {17 + {foffset}} 0 0 {phase_17})
SYMBOL voltage 400 16 R0
WINDOW 123 0 0 Left 2
WINDOW 39 0 0 Left 2
SYMATTR InstName V18
SYMATTR Value SINE(0 {amplitude} {18 + {foffset}} 0 0 {phase_18})
SYMBOL voltage 400 -96 R0
WINDOW 123 0 0 Left 2
WINDOW 39 0 0 Left 2
SYMATTR InstName V19
SYMATTR Value SINE(0 {amplitude} {19 + {foffset}} 0 0 {phase_19})
SYMBOL voltage 400 -224 R0
WINDOW 123 0 0 Left 2
WINDOW 39 0 0 Left 2
SYMATTR InstName V20
SYMATTR Value SINE(0 {amplitude} {20 + {foffset}} 0 0 {phase_20})
SYMBOL voltage 400 -384 R0
WINDOW 123 0 0 Left 2
WINDOW 39 0 0 Left 2
SYMATTR InstName V21
SYMATTR Value SINE(0 {amplitude} {21 + {foffset}} 0 0 {phase_21})
SYMBOL voltage 400 -496 R0
WINDOW 123 0 0 Left 2
WINDOW 39 0 0 Left 2
SYMATTR InstName V22
SYMATTR Value SINE(0 {amplitude} {22 + {foffset}} 0 0 {phase_22})
SYMBOL voltage 400 -608 R0
WINDOW 123 0 0 Left 2
WINDOW 39 0 0 Left 2
SYMATTR InstName V23
SYMATTR Value SINE(0 {amplitude} {23 + {foffset}} 0 0 {phase_23})
SYMBOL voltage 400 -720 R0
WINDOW 123 0 0 Left 2
WINDOW 39 0 0 Left 2
SYMATTR InstName V24
SYMATTR Value SINE(0 {amplitude} {24 + {foffset}} 0 0 {phase_24})
SYMBOL voltage 912 96 R0
WINDOW 123 0 0 Left 2
WINDOW 39 0 0 Left 2
SYMATTR InstName V25
SYMATTR Value SINE(0 {amplitude} {25 + {foffset}} 0 0 {phase_25})
SYMBOL res -880 112 R0
SYMATTR InstName R2
SYMATTR Value 1
SYMBOL voltage 912 -32 R0
WINDOW 123 0 0 Left 2
WINDOW 39 0 0 Left 2
SYMATTR InstName V26
SYMATTR Value SINE(0 {amplitude} {26 + {foffset}} 0 0 {phase_26})
SYMBOL voltage 912 -144 R0
WINDOW 123 0 0 Left 2
WINDOW 39 0 0 Left 2
SYMATTR InstName V27
SYMATTR Value SINE(0 {amplitude} {27 + {foffset}} 0 0 {phase_27})
SYMBOL voltage 912 -256 R0
WINDOW 123 0 0 Left 2
WINDOW 39 0 0 Left 2
SYMATTR InstName V28
SYMATTR Value SINE(0 {amplitude} {28 + {foffset}} 0 0 {phase_28})
SYMBOL voltage 912 -368 R0
WINDOW 123 0 0 Left 2
WINDOW 39 0 0 Left 2
SYMATTR InstName V29
SYMATTR Value SINE(0 {amplitude} {29 + {foffset}} 0 0 {phase_29})
SYMBOL voltage 912 -496 R0
WINDOW 123 0 0 Left 2
WINDOW 39 0 0 Left 2
SYMATTR InstName V30
SYMATTR Value SINE(0 {amplitude} {30 + {foffset}} 0 0 {phase_30})
SYMBOL voltage 912 -624 R0
WINDOW 123 0 0 Left 2
WINDOW 39 0 0 Left 2
SYMATTR InstName V31
SYMATTR Value SINE(0 {amplitude} {31 + {foffset}} 0 0 {phase_31})
SYMBOL voltage 912 -736 R0
WINDOW 123 0 0 Left 2
WINDOW 39 0 0 Left 2
SYMATTR InstName V32
SYMATTR Value SINE(0 {amplitude} {32 + {foffset}} 0 0 {phase_32})
SYMBOL voltage 912 -880 R0
WINDOW 123 0 0 Left 2
WINDOW 39 0 0 Left 2
SYMATTR InstName V33
SYMATTR Value SINE(0 {amplitude} {33 + {foffset}} 0 0 {phase_33})
SYMBOL voltage 912 -1008 R0
WINDOW 123 0 0 Left 2
WINDOW 39 0 0 Left 2
SYMATTR InstName V34
SYMATTR Value SINE(0 {amplitude} {34 + {foffset}} 0 0 {phase_34})
SYMBOL voltage 912 -1152 R0
WINDOW 123 0 0 Left 2
WINDOW 39 0 0 Left 2
SYMATTR InstName V35
SYMATTR Value SINE(0 {amplitude} {35 + {foffset}} 0 0 {phase_35})
SYMBOL voltage 912 -1264 R0
WINDOW 123 0 0 Left 2
WINDOW 39 0 0 Left 2
SYMATTR InstName V36
SYMATTR Value SINE(0 {amplitude} {36 + {foffset}} 0 0 {phase_36})
TEXT -320 408 Left 2 !.tran 0 5 0
TEXT -536 -1032 Left 2 ;World's Silliest Noise Generator (WSNG)\nUsed to illustrate the concept of "noise density"\n \nPlot V(vout), then control-click the waveform. The RMS value will be the square-root of the number of voltage sources.\nPlot V(vout)*I(R1), then control-click the waveform. The integral (in Joules) will be the number of voltage sources.
TEXT -1368 -992 Left 2 !.PARAM phase_01 = mc(phase, tol)\n.PARAM phase_02 = mc(phase, tol)\n.PARAM phase_03 = mc(phase, tol)\n.PARAM phase_04 = mc(phase, tol)\n.PARAM phase_05 = mc(phase, tol)\n.PARAM phase_06 = mc(phase, tol)\n.PARAM phase_07 = mc(phase, tol)\n.PARAM phase_08 = mc(phase, tol)\n.PARAM phase_09 = mc(phase, tol)\n.PARAM phase_10 = mc(phase, tol)\n.PARAM phase_11 = mc(phase, tol)\n.PARAM phase_12 = mc(phase, tol)\n.PARAM phase_13 = mc(phase, tol)\n.PARAM phase_14 = mc(phase, tol)\n.PARAM phase_15 = mc(phase, tol)\n.PARAM phase_16 = mc(phase, tol)\n.PARAM phase_17 = mc(phase, tol)\n.PARAM phase_18 = mc(phase, tol)\n.PARAM phase_19 = mc(phase, tol)\n.PARAM phase_20 = mc(phase, tol)\n.PARAM phase_21 = mc(phase, tol)\n.PARAM phase_22 = mc(phase, tol)\n.PARAM phase_23 = mc(phase, tol)\n.PARAM phase_24 = mc(phase, tol)\n.PARAM phase_25 = mc(phase, tol)\n.PARAM phase_26 = mc(phase, tol)\n.PARAM phase_27 = mc(phase, tol)\n.PARAM phase_28 = mc(phase, tol)\n.PARAM phase_29 = mc(phase, tol)\n.PARAM phase_30 = mc(phase, tol)\n.PARAM phase_31 = mc(phase, tol)\n.PARAM phase_32 = mc(phase, tol)\n.PARAM phase_33 = mc(phase, tol)\n.PARAM phase_34 = mc(phase, tol)\n.PARAM phase_35 = mc(phase, tol)\n.PARAM phase_36 = mc(phase, tol)
TEXT -1488 416 Left 2 ;.step param X 0 10 1 ; a dummy paramter to cycle Monte Carlo runs
TEXT -1368 -1184 Left 2 !.param phase=90\n.param tol = 0\n.param amplitude = 1.41421356\n.param foffset = 0
