Version 4
SHEET 1 2056 680
WIRE -208 -432 -672 -432
WIRE 384 -432 -96 -432
WIRE 880 -432 480 -432
WIRE 1360 -432 960 -432
WIRE 1632 -432 1456 -432
WIRE 1760 -432 1632 -432
WIRE -672 -384 -672 -432
WIRE -96 -384 -96 -432
WIRE 480 -384 480 -432
WIRE 960 -384 960 -432
WIRE 1456 -384 1456 -432
WIRE -672 -256 -672 -304
WIRE -96 -256 -96 -304
WIRE 480 -256 480 -304
WIRE 960 -256 960 -304
WIRE 1456 -256 1456 -304
WIRE 1760 -160 1760 -432
WIRE -672 -144 -672 -176
WIRE -96 -144 -96 -176
WIRE 480 -144 480 -176
WIRE 960 -144 960 -176
WIRE 1456 -144 1456 -176
WIRE -672 -32 -672 -64
WIRE -96 -32 -96 -64
WIRE 480 -32 480 -64
WIRE 960 -32 960 -64
WIRE 1456 -32 1456 -64
WIRE -672 64 -672 48
WIRE -672 64 -864 64
WIRE -672 80 -672 64
WIRE -96 80 -96 48
WIRE 480 80 480 48
WIRE 960 80 960 48
WIRE 1456 80 1456 48
WIRE -864 128 -864 64
WIRE -672 256 -672 160
WIRE -208 256 -208 -432
WIRE -96 256 -96 160
WIRE -96 256 -208 256
WIRE 384 256 384 -432
WIRE 480 256 480 160
WIRE 480 256 384 256
WIRE 880 256 880 -432
WIRE 960 256 960 160
WIRE 960 256 880 256
WIRE 1360 256 1360 -432
WIRE 1456 256 1456 160
WIRE 1456 256 1360 256
WIRE 1760 256 1760 -80
WIRE -864 272 -864 208
FLAG -672 256 0
FLAG 1760 256 0
FLAG 1632 -432 Vout
FLAG -864 272 0
SYMBOL voltage -672 64 R0
WINDOW 123 0 0 Left 2
WINDOW 39 0 0 Left 2
SYMATTR InstName V1
SYMATTR Value SINE(0 1.414 1 0 0 {phase_01})
SYMBOL voltage -672 -48 R0
WINDOW 123 0 0 Left 2
WINDOW 39 0 0 Left 2
SYMATTR InstName V2
SYMATTR Value SINE(0 1.414 2 0 0 {phase_02})
SYMBOL voltage -672 -160 R0
WINDOW 123 0 0 Left 2
WINDOW 39 0 0 Left 2
SYMATTR InstName V3
SYMATTR Value SINE(0 1.414 3 0 0 {phase_03})
SYMBOL voltage -672 -272 R0
WINDOW 123 0 0 Left 2
WINDOW 39 0 0 Left 2
SYMATTR InstName V4
SYMATTR Value SINE(0 1.414 4 0 0 {phase_04})
SYMBOL voltage -672 -400 R0
WINDOW 123 0 0 Left 2
WINDOW 39 0 0 Left 2
SYMATTR InstName V5
SYMATTR Value SINE(0 1.414 5 0 0 {phase_05})
SYMBOL res 1744 -176 R0
SYMATTR InstName R1
SYMATTR Value 1
SYMBOL voltage -96 64 R0
WINDOW 123 0 0 Left 2
WINDOW 39 0 0 Left 2
SYMATTR InstName V6
SYMATTR Value SINE(0 1.414 6 0 0 {phase_06})
SYMBOL voltage -96 -48 R0
WINDOW 123 0 0 Left 2
WINDOW 39 0 0 Left 2
SYMATTR InstName V7
SYMATTR Value SINE(0 1.414 7 0 0 {phase_07})
SYMBOL voltage -96 -160 R0
WINDOW 123 0 0 Left 2
WINDOW 39 0 0 Left 2
SYMATTR InstName V8
SYMATTR Value SINE(0 1.414 8 0 0 {phase_08})
SYMBOL voltage -96 -272 R0
WINDOW 123 0 0 Left 2
WINDOW 39 0 0 Left 2
SYMATTR InstName V9
SYMATTR Value SINE(0 1.414 9 0 0 {phase_09})
SYMBOL voltage -96 -400 R0
WINDOW 123 0 0 Left 2
WINDOW 39 0 0 Left 2
SYMATTR InstName V10
SYMATTR Value SINE(0 1.414 10 0 0 {phase_10})
SYMBOL voltage 480 64 R0
WINDOW 123 0 0 Left 2
WINDOW 39 0 0 Left 2
SYMATTR InstName V11
SYMATTR Value SINE(0 1.414 11 0 0 {phase_11})
SYMBOL voltage 480 -48 R0
WINDOW 123 0 0 Left 2
WINDOW 39 0 0 Left 2
SYMATTR InstName V12
SYMATTR Value SINE(0 1.414 12 0 0 {phase_12})
SYMBOL voltage 480 -160 R0
WINDOW 123 0 0 Left 2
WINDOW 39 0 0 Left 2
SYMATTR InstName V13
SYMATTR Value SINE(0 1.414 13 0 0 {phase_13})
SYMBOL voltage 480 -272 R0
WINDOW 123 0 0 Left 2
WINDOW 39 0 0 Left 2
SYMATTR InstName V14
SYMATTR Value SINE(0 1.414 14 0 0 {phase_14})
SYMBOL voltage 480 -400 R0
WINDOW 123 0 0 Left 2
WINDOW 39 0 0 Left 2
SYMATTR InstName V15
SYMATTR Value SINE(0 1.414 15 0 0 {phase_15})
SYMBOL voltage 960 64 R0
WINDOW 123 0 0 Left 2
WINDOW 39 0 0 Left 2
SYMATTR InstName V16
SYMATTR Value SINE(0 1.414 16 0 0 {phase_16})
SYMBOL voltage 960 -48 R0
WINDOW 123 0 0 Left 2
WINDOW 39 0 0 Left 2
SYMATTR InstName V17
SYMATTR Value SINE(0 1.414 17 0 0 {phase_17})
SYMBOL voltage 960 -160 R0
WINDOW 123 0 0 Left 2
WINDOW 39 0 0 Left 2
SYMATTR InstName V18
SYMATTR Value SINE(0 1.414 18 0 0 {phase_18})
SYMBOL voltage 960 -272 R0
WINDOW 123 0 0 Left 2
WINDOW 39 0 0 Left 2
SYMATTR InstName V19
SYMATTR Value SINE(0 1.414 19 0 0 {phase_19})
SYMBOL voltage 960 -400 R0
WINDOW 123 0 0 Left 2
WINDOW 39 0 0 Left 2
SYMATTR InstName V20
SYMATTR Value SINE(0 1.414 20 0 0 {phase_20})
SYMBOL voltage 1456 64 R0
WINDOW 123 0 0 Left 2
WINDOW 39 0 0 Left 2
SYMATTR InstName V21
SYMATTR Value SINE(0 1.414 21 0 0 {phase_21})
SYMBOL voltage 1456 -48 R0
WINDOW 123 0 0 Left 2
WINDOW 39 0 0 Left 2
SYMATTR InstName V22
SYMATTR Value SINE(0 1.414 22 0 0 {phase_22})
SYMBOL voltage 1456 -160 R0
WINDOW 123 0 0 Left 2
WINDOW 39 0 0 Left 2
SYMATTR InstName V23
SYMATTR Value SINE(0 1.414 23 0 0 {phase_23})
SYMBOL voltage 1456 -272 R0
WINDOW 123 0 0 Left 2
WINDOW 39 0 0 Left 2
SYMATTR InstName V24
SYMATTR Value SINE(0 1.414 24 0 0 {phase_24})
SYMBOL voltage 1456 -400 R0
WINDOW 123 0 0 Left 2
WINDOW 39 0 0 Left 2
SYMATTR InstName V25
SYMATTR Value SINE(0 1.414 25 0 0 {phase_25})
SYMBOL res -880 112 R0
SYMATTR InstName R2
SYMATTR Value 1
TEXT -848 456 Left 2 !.tran 0 1 0 10u
TEXT 8 -616 Left 2 ;World's Silliest Noise Generator (WSNG)\nUsed to illustrate the concept of "noise density"\n \nPlot V(vout), then control-click the waveform. The RMS value will be the square-root of the number of voltage sources.\nPlot V(vout)*I(R1), then control-click the waveform. The integral (in Joules) will be the number of voltage sources.
TEXT -1976 -376 Left 2 !.PARAM phase_01 = mc(phase, 1)\n.PARAM phase_02 = mc(phase, 1)\n.PARAM phase_03 = mc(phase, 1)\n.PARAM phase_04 = mc(phase, 1)\n.PARAM phase_05 = mc(phase, 1)\n.PARAM phase_06 = mc(phase, 1)\n.PARAM phase_07 = mc(phase, 1)\n.PARAM phase_08 = mc(phase, 1)\n.PARAM phase_09 = mc(phase, 1)\n.PARAM phase_10 = mc(phase, 1)\n.PARAM phase_11 = mc(phase, 1)\n.PARAM phase_12 = mc(phase, 1)\n.PARAM phase_13 = mc(phase, 1)\n.PARAM phase_14 = mc(phase, 1)\n.PARAM phase_15 = mc(phase, 1)\n.PARAM phase_16 = mc(phase, 1)\n.PARAM phase_17 = mc(phase, 1)\n.PARAM phase_18 = mc(phase, 1)\n.PARAM phase_19 = mc(phase, 1)\n.PARAM phase_20 = mc(phase, 1)\n.PARAM phase_21 = mc(phase, 1)\n.PARAM phase_22 = mc(phase, 1)\n.PARAM phase_23 = mc(phase, 1)\n.PARAM phase_24 = mc(phase, 1)\n.PARAM phase_25 = mc(phase, 1)
TEXT -1984 360 Left 2 ;.step param X 0 10 1 ; a dummy paramter to cycle Monte Carlo runs
TEXT -1984 -472 Left 2 !.param phase=0
